Version 4
SHEET 1 1000 720
WIRE 144 112 -64 112
WIRE -64 208 -64 112
WIRE -16 208 -64 208
WIRE 144 224 144 112
WIRE 144 224 48 224
WIRE 192 224 144 224
WIRE -16 240 -128 240
WIRE -128 288 -128 240
WIRE -128 432 -128 368
FLAG 144 400 Vcc
FLAG -128 432 0
FLAG 192 224 Vout
IOPIN 192 224 Out
FLAG 240 400 Vdd
FLAG 144 480 0
FLAG 240 480 0
FLAG 16 256 Vcc
FLAG 16 192 Vdd
SYMBOL voltage 144 384 R0
WINDOW 123 0 0 Left 2
WINDOW 39 0 0 Left 2
SYMATTR InstName V1
SYMATTR Value 4
SYMBOL voltage 240 384 R0
WINDOW 123 0 0 Left 2
WINDOW 39 0 0 Left 2
SYMATTR InstName V2
SYMATTR Value -4
SYMBOL voltage -128 272 R0
WINDOW 3 22 96 Left 2
WINDOW 123 0 0 Left 2
WINDOW 39 0 0 Left 2
SYMATTR InstName V3
SYMATTR Value SINE(0 3 2)
SYMBOL Opamps\\TL081 16 288 M180
SYMATTR InstName U4
TEXT -248 472 Left 2 !.tran 01
