Version 4
SHEET 1 880 680
WIRE 256 -144 224 -144
WIRE 400 -144 400 -192
WIRE 400 -144 336 -144
WIRE 480 -144 400 -144
WIRE 96 48 64 48
WIRE 224 48 224 -144
WIRE 224 48 176 48
WIRE 288 48 224 48
WIRE 560 48 560 -144
WIRE 560 48 352 48
WIRE 64 112 64 48
WIRE 560 192 560 48
FLAG 64 192 0
FLAG 400 -192 Vout
IOPIN 400 -192 Out
FLAG 560 192 0
SYMBOL References\\LT1634-2.5 320 48 R270
WINDOW 3 -27 0 VBottom 2
WINDOW 0 27 0 VTop 2
SYMATTR InstName U1
SYMBOL voltage 64 96 R0
WINDOW 123 0 0 Left 2
WINDOW 39 0 0 Left 2
SYMATTR InstName V1
SYMATTR Value 5.5
SYMBOL res 192 32 R90
WINDOW 0 0 56 VBottom 2
WINDOW 3 32 56 VTop 2
SYMATTR InstName R1
SYMATTR Value 15000
SYMBOL res 352 -160 R90
WINDOW 0 0 56 VBottom 2
WINDOW 3 32 56 VTop 2
SYMATTR InstName R2
SYMATTR Value 10k
SYMBOL res 576 -160 R90
WINDOW 0 0 56 VBottom 2
WINDOW 3 32 56 VTop 2
SYMATTR InstName R3
SYMATTR Value 18820
TEXT 238 296 Left 2 !.tran 1
