Version 4
SHEET 1 1000 680
WIRE 144 112 -64 112
WIRE -64 208 -64 112
WIRE -16 208 -64 208
WIRE 144 224 144 112
WIRE 144 224 48 224
WIRE 192 224 144 224
WIRE -16 240 -128 240
WIRE -128 288 -128 240
WIRE -128 432 -128 368
FLAG 832 448 Vcc
FLAG 16 256 Vdd
FLAG 16 192 Vcc
FLAG -128 432 0
FLAG 192 224 Vout
IOPIN 192 224 Out
FLAG 928 448 Vdd
FLAG 832 528 0
FLAG 928 528 0
SYMBOL Opamps/LT1028A 16 160 R0
SYMATTR InstName U1
SYMBOL voltage 832 432 R0
SYMATTR InstName V1
SYMATTR Value 5.5
SYMBOL voltage 928 432 R0
SYMATTR InstName V2
SYMATTR Value -5.5
SYMBOL voltage -128 272 R0
SYMATTR InstName V3
SYMATTR Value SINE(0 3.3 10)
TEXT -248 472 Left 2 !.tran 01
