Version 4
SHEET 1 880 680
WIRE -32 -464 -144 -464
WIRE -144 -352 -144 -464
WIRE -32 -336 -32 -384
WIRE 160 -336 -32 -336
WIRE 160 -304 160 -336
WIRE -32 -272 -32 -336
WIRE 160 -160 160 -224
WIRE 208 -160 160 -160
WIRE 160 -80 160 -160
FLAG 160 0 0
FLAG -32 -208 0
FLAG 208 -160 Vout
IOPIN 208 -160 Out
FLAG -144 -272 0
SYMBOL References\\LT1634-2.5 -32 -240 R0
SYMATTR InstName U1
SYMBOL res -16 -368 R180
WINDOW 0 36 76 Left 2
WINDOW 3 36 40 Left 2
SYMATTR InstName R1
SYMATTR Value 15K
SYMBOL res 176 -208 R180
WINDOW 0 36 76 Left 2
WINDOW 3 36 40 Left 2
SYMATTR InstName R2
SYMATTR Value 10k
SYMBOL res 176 16 R180
WINDOW 0 36 76 Left 2
WINDOW 3 36 40 Left 2
SYMATTR InstName R3
SYMATTR Value 18.82K
SYMBOL voltage -144 -368 R0
WINDOW 123 0 0 Left 2
WINDOW 39 0 0 Left 2
SYMATTR InstName V3
SYMATTR Value 5.5
