Version 4
SHEET 1 880 680
WIRE 512 -16 480 -16
WIRE 640 -16 592 -16
WIRE 224 48 144 48
WIRE 480 48 480 -16
WIRE 480 48 304 48
WIRE 480 96 480 48
WIRE 512 96 480 96
WIRE 640 112 640 -16
WIRE 640 112 576 112
WIRE 672 112 640 112
WIRE 144 128 144 48
WIRE 368 128 336 128
WIRE 464 128 448 128
WIRE 512 128 464 128
WIRE 464 160 464 128
WIRE 336 192 336 128
FLAG 336 272 0
FLAG 144 208 0
FLAG 624 336 0
FLAG 720 336 0
FLAG 544 80 Vcc
FLAG 624 256 Vcc
FLAG 544 144 Vdd
FLAG 720 256 Vdd
FLAG 672 112 Vout
IOPIN 672 112 Out
FLAG 464 240 0
SYMBOL voltage 144 112 R0
WINDOW 123 0 0 Left 2
WINDOW 39 0 0 Left 2
SYMATTR InstName V1
SYMATTR Value 1.5915
SYMBOL voltage 624 240 R0
WINDOW 123 0 0 Left 2
WINDOW 39 0 0 Left 2
SYMATTR InstName V3
SYMATTR Value 7
SYMBOL voltage 720 240 R0
WINDOW 123 0 0 Left 2
WINDOW 39 0 0 Left 2
SYMATTR InstName V4
SYMATTR Value -7
SYMBOL res 208 64 R270
WINDOW 0 32 56 VTop 2
WINDOW 3 0 56 VBottom 2
SYMATTR InstName R1
SYMATTR Value 100k
SYMBOL res 496 0 R270
WINDOW 0 32 56 VTop 2
WINDOW 3 0 56 VBottom 2
SYMATTR InstName R2
SYMATTR Value 100k
SYMBOL res 352 144 R270
WINDOW 0 32 56 VTop 2
WINDOW 3 0 56 VBottom 2
SYMATTR InstName R3
SYMATTR Value 100k
SYMBOL res 448 144 R0
SYMATTR InstName R4
SYMATTR Value 100k
SYMBOL voltage 336 176 R0
WINDOW 123 0 0 Left 2
WINDOW 39 0 0 Left 2
SYMATTR InstName V2
SYMATTR Value Va
SYMBOL Opamps\\UniversalOpamp2 544 112 R0
SYMATTR InstName U1
TEXT 48 392 Left 2 !.tran 0 5 0.001
