Version 4
SHEET 1 880 680
WIRE -240 -304 -416 -304
WIRE 352 -304 80 -304
WIRE -544 -256 -720 -256
WIRE -416 -256 -416 -304
WIRE -416 -256 -464 -256
WIRE -368 -256 -416 -256
WIRE 352 -192 352 -224
WIRE 560 -192 352 -192
WIRE -240 -176 -416 -176
WIRE 352 -144 352 -192
WIRE -720 -112 -720 -256
WIRE -544 -112 -720 -112
WIRE -416 -112 -416 -176
WIRE -416 -112 -464 -112
WIRE -368 -112 -416 -112
WIRE -288 -112 -288 -256
WIRE 80 -48 80 -304
WIRE -240 -32 -416 -32
WIRE 352 -32 352 -64
WIRE 560 -32 352 -32
WIRE 352 0 352 -32
WIRE -720 32 -720 -112
WIRE -544 32 -720 32
WIRE -416 32 -416 -32
WIRE -416 32 -464 32
WIRE -368 32 -416 32
WIRE -288 32 -288 -112
WIRE -720 64 -720 32
WIRE 352 112 352 80
WIRE 560 112 352 112
WIRE 352 144 352 112
WIRE -720 272 -720 144
WIRE -288 272 -288 32
WIRE -288 272 -720 272
WIRE 80 272 80 32
WIRE 352 272 352 224
WIRE 352 272 80 272
WIRE -288 304 -288 272
WIRE 352 304 352 272
FLAG 352 304 0
FLAG 560 -192 Tærskel_1
FLAG 560 -32 Tærskel_2
FLAG 560 112 Tærskel_3
FLAG -288 304 0
FLAG -240 -304 Tærskel_1
FLAG -240 -176 Tærskel_2
FLAG -240 -32 Tærskel_3
SYMBOL voltage 80 -64 R0
SYMATTR InstName Vref
SYMATTR Value 2.5V
SYMBOL res 336 -320 R0
SYMATTR InstName R1
SYMATTR Value ""
SYMBOL res 336 -160 R0
SYMATTR InstName R2
SYMATTR Value ""
SYMBOL res 336 -16 R0
SYMATTR InstName R3
SYMATTR Value ""
SYMBOL res 336 128 R0
SYMATTR InstName R4
SYMATTR Value ""
SYMBOL voltage -720 48 R0
SYMATTR InstName Vref
SYMATTR Value 2.5V
SYMBOL res -448 -272 R90
WINDOW 0 0 56 VBottom 2
WINDOW 3 32 56 VTop 2
SYMATTR InstName R1
SYMATTR Value ""
SYMBOL res -272 -272 R90
WINDOW 0 0 56 VBottom 2
WINDOW 3 32 56 VTop 2
SYMATTR InstName R4
SYMATTR Value ""
SYMBOL res -448 -128 R90
WINDOW 0 0 56 VBottom 2
WINDOW 3 32 56 VTop 2
SYMATTR InstName R2
SYMATTR Value ""
SYMBOL res -272 -128 R90
WINDOW 0 0 56 VBottom 2
WINDOW 3 32 56 VTop 2
SYMATTR InstName R5
SYMATTR Value ""
SYMBOL res -448 16 R90
WINDOW 0 0 56 VBottom 2
WINDOW 3 32 56 VTop 2
SYMATTR InstName R3
SYMATTR Value ""
SYMBOL res -272 16 R90
WINDOW 0 0 56 VBottom 2
WINDOW 3 32 56 VTop 2
SYMATTR InstName R6
SYMATTR Value ""
