Version 4
SHEET 1 1912 1952
WIRE -32 -560 -48 -560
WIRE 400 -560 48 -560
WIRE 368 -512 272 -512
WIRE 368 -464 368 -512
WIRE 400 -464 400 -560
WIRE 272 -288 272 -512
WIRE 384 -288 384 -400
WIRE 384 -288 272 -288
WIRE 496 -224 112 -224
WIRE 656 -208 576 -208
WIRE 784 -208 720 -208
WIRE 912 -208 864 -208
WIRE 384 -192 384 -288
WIRE 496 -192 384 -192
WIRE -32 -128 -64 -128
WIRE 112 -128 112 -224
WIRE 112 -128 48 -128
WIRE 192 -128 112 -128
WIRE 320 -128 272 -128
WIRE 496 0 112 0
WIRE 656 16 576 16
WIRE 784 16 720 16
WIRE 912 16 912 -208
WIRE 912 16 864 16
WIRE 384 32 384 -192
WIRE 496 32 384 32
WIRE -64 96 -64 -128
WIRE -32 96 -64 96
WIRE 112 96 112 0
WIRE 112 96 48 96
WIRE 192 96 112 96
WIRE 320 96 320 -128
WIRE 320 96 272 96
WIRE 384 208 384 32
WIRE 496 208 384 208
WIRE 656 224 576 224
WIRE 784 224 656 224
WIRE 912 224 912 16
WIRE 912 224 864 224
WIRE 112 240 112 96
WIRE 496 240 112 240
WIRE 960 288 736 288
WIRE 1120 288 1040 288
WIRE 656 368 656 224
WIRE 688 368 656 368
WIRE 496 480 112 480
WIRE 912 496 912 224
WIRE 912 496 576 496
WIRE 384 512 384 208
WIRE 496 512 384 512
WIRE -64 544 -64 96
WIRE -32 544 -64 544
WIRE 112 544 112 480
WIRE 112 544 48 544
WIRE 192 544 112 544
WIRE 320 544 320 96
WIRE 320 544 272 544
WIRE -288 560 -448 560
WIRE -144 576 -224 576
WIRE -64 576 -64 544
WIRE -64 576 -144 576
WIRE -288 592 -352 592
WIRE -64 608 -64 576
WIRE 512 608 512 544
WIRE 608 608 512 608
WIRE 704 608 688 608
WIRE 704 656 704 608
WIRE -352 672 -352 592
WIRE -144 672 -144 576
WIRE -144 672 -352 672
WIRE -96 720 -160 720
WIRE -64 720 -64 688
WIRE 48 720 -64 720
WIRE 384 736 384 512
WIRE 496 736 384 736
WIRE 48 752 48 720
WIRE 704 752 704 720
WIRE 704 752 576 752
WIRE -96 768 -96 720
WIRE -64 768 -64 720
WIRE 496 768 144 768
WIRE 912 800 912 496
WIRE -80 880 -80 832
WIRE 48 880 48 832
WIRE 48 880 -80 880
WIRE -80 944 -80 880
WIRE -32 944 -80 944
WIRE 144 944 144 768
WIRE 144 944 48 944
WIRE 192 944 144 944
WIRE 320 944 320 544
WIRE 320 944 272 944
WIRE 496 1104 112 1104
WIRE 656 1120 576 1120
WIRE 800 1120 720 1120
WIRE 912 1120 912 1072
WIRE 912 1120 880 1120
WIRE 384 1136 384 736
WIRE 496 1136 384 1136
WIRE -80 1200 -80 944
WIRE -32 1200 -80 1200
WIRE 112 1200 112 1104
WIRE 112 1200 48 1200
WIRE 192 1200 112 1200
WIRE 320 1200 320 944
WIRE 320 1200 272 1200
WIRE 384 1312 384 1136
WIRE 496 1312 384 1312
WIRE 672 1328 576 1328
WIRE 800 1328 672 1328
WIRE 912 1328 912 1120
WIRE 912 1328 880 1328
WIRE 112 1344 112 1200
WIRE 496 1344 112 1344
WIRE 960 1408 736 1408
WIRE 1120 1408 1040 1408
WIRE 672 1488 672 1328
WIRE 688 1488 672 1488
WIRE 496 1584 112 1584
WIRE 656 1600 576 1600
WIRE 800 1600 720 1600
WIRE 912 1600 912 1328
WIRE 912 1600 880 1600
WIRE 384 1616 384 1312
WIRE 496 1616 384 1616
WIRE -80 1680 -80 1200
WIRE -32 1680 -80 1680
WIRE 112 1680 112 1584
WIRE 112 1680 48 1680
WIRE 192 1680 112 1680
WIRE 320 1680 320 1200
WIRE 320 1680 272 1680
WIRE 320 1744 320 1680
FLAG -48 -560 0
FLAG 512 800 0
FLAG 912 800 Vcc
FLAG 912 1072 Vcc
FLAG 528 448 Vcc
FLAG 528 704 Vcc
FLAG 528 800 Vdd
FLAG 320 1744 0
FLAG -384 1104 Vcc
FLAG -528 560 0
FLAG -160 720 0
FLAG -384 1184 0
FLAG -288 1184 0
FLAG -288 1104 Vdd
FLAG 528 544 Vdd
FLAG 416 -432 Vcc
FLAG -112 800 Vcc
FLAG -48 800 Vdd
FLAG 352 -432 Vdd
FLAG 512 -256 0
FLAG 512 -32 0
FLAG 528 -160 Vcc
FLAG 528 -256 Vdd
FLAG 528 -32 Vdd
FLAG 528 1552 Vcc
FLAG 528 1072 Vcc
FLAG 528 1168 Vdd
FLAG 512 1168 0
FLAG 512 1648 0
FLAG -256 544 Vcc
FLAG -256 608 Vdd
FLAG 512 1376 0
FLAG 528 1376 Vdd
FLAG 528 1280 Vcc
FLAG 736 1504 0
FLAG -496 1184 0
FLAG -496 1104 V+
FLAG 1184 1408 V+
FLAG 736 384 0
FLAG 512 176 0
FLAG 1184 288 V+
FLAG 528 176 Vdd
FLAG 528 272 Vcc
SYMBOL LED 720 -224 R90
WINDOW 0 0 32 VBottom 2
WINDOW 3 28 32 VBottom 2
SYMATTR InstName D1
SYMATTR Value QTLP690C
SYMATTR Description Diode
SYMATTR Type diode
SYMBOL res 288 -144 R90
WINDOW 0 0 56 VBottom 2
WINDOW 3 32 56 VTop 2
SYMATTR InstName R7
SYMATTR Value 16821
SYMBOL res 64 -144 R90
WINDOW 0 0 56 VBottom 2
WINDOW 3 32 56 VTop 2
SYMATTR InstName R1
SYMATTR Value 10K
SYMBOL voltage 64 -560 R90
WINDOW 0 -32 56 VBottom 2
WINDOW 3 32 56 VTop 2
SYMATTR InstName Input
SYMATTR Value SINE(0 3 10)
SYMBOL res 880 -224 R90
WINDOW 0 0 56 VBottom 2
WINDOW 3 32 56 VTop 2
SYMATTR InstName R13
SYMATTR Value 165
SYMBOL res 288 80 R90
WINDOW 0 0 56 VBottom 2
WINDOW 3 32 56 VTop 2
SYMATTR InstName R8
SYMATTR Value 6285
SYMBOL res 64 80 R90
WINDOW 0 0 56 VBottom 2
WINDOW 3 32 56 VTop 2
SYMATTR InstName R2
SYMATTR Value 10K
SYMBOL res 880 0 R90
WINDOW 0 0 56 VBottom 2
WINDOW 3 32 56 VTop 2
SYMATTR InstName R14
SYMATTR Value 165
SYMBOL res 64 528 R90
WINDOW 0 0 56 VBottom 2
WINDOW 3 32 56 VTop 2
SYMATTR InstName R3
SYMATTR Value 10K
SYMBOL res 288 528 R90
WINDOW 0 0 56 VBottom 2
WINDOW 3 32 56 VTop 2
SYMATTR InstName R9
SYMATTR Value 1068
SYMBOL res -80 592 R0
SYMATTR InstName R20
SYMATTR Value 100K
SYMBOL res 32 736 R0
SYMATTR InstName R21
SYMATTR Value 100K
SYMBOL res 64 1184 R90
WINDOW 0 0 56 VBottom 2
WINDOW 3 32 56 VTop 2
SYMATTR InstName R5
SYMATTR Value 10K
SYMBOL res 288 1184 R90
WINDOW 0 0 56 VBottom 2
WINDOW 3 32 56 VTop 2
SYMATTR InstName R11
SYMATTR Value 6039
SYMBOL res 64 1664 R90
WINDOW 0 0 56 VBottom 2
WINDOW 3 32 56 VTop 2
SYMATTR InstName R6
SYMATTR Value 10K
SYMBOL res 288 1664 R90
WINDOW 0 0 56 VBottom 2
WINDOW 3 32 56 VTop 2
SYMATTR InstName R12
SYMATTR Value 15765
SYMBOL LED 720 1104 R90
WINDOW 0 0 32 VBottom 2
WINDOW 3 28 32 VBottom 2
SYMATTR InstName D4
SYMATTR Value QTLP690C
SYMATTR Description Diode
SYMATTR Type diode
SYMBOL LED 720 1584 R90
WINDOW 0 0 32 VBottom 2
WINDOW 3 28 32 VBottom 2
SYMATTR InstName D5
SYMATTR Value QTLP690C
SYMATTR Description Diode
SYMATTR Type diode
SYMBOL res 896 1104 R90
WINDOW 0 0 56 VBottom 2
WINDOW 3 32 56 VTop 2
SYMATTR InstName R17
SYMATTR Value 165
SYMBOL res 896 1584 R90
WINDOW 0 0 56 VBottom 2
WINDOW 3 32 56 VTop 2
SYMATTR InstName R19
SYMATTR Value 165
SYMBOL voltage -432 560 R90
WINDOW 0 -32 56 VBottom 2
WINDOW 3 32 56 VTop 2
SYMATTR InstName Vref
SYMATTR Value 2.5
SYMBOL voltage -288 1088 R0
SYMATTR InstName V2
SYMATTR Value -5.5
SYMBOL voltage -384 1088 R0
SYMATTR InstName V1
SYMATTR Value 5.5
SYMBOL res 704 592 R90
WINDOW 0 0 56 VBottom 2
WINDOW 3 32 56 VTop 2
SYMATTR InstName R16
SYMATTR Value 165
SYMBOL Opamps\\TL081 -144 800 M90
WINDOW 0 32 48 VLeft 2
WINDOW 3 51 131 VLeft 2
SYMATTR InstName U11
SYMBOL Opamps\\OPA227 448 -432 R90
SYMATTR InstName U9
SYMBOL LED 688 656 R0
WINDOW 3 24 28 Left 2
SYMATTR Value QTLP690C
SYMATTR InstName D3
SYMATTR Description Diode
SYMATTR Type diode
SYMBOL res 64 928 R90
WINDOW 0 0 56 VBottom 2
WINDOW 3 32 56 VTop 2
SYMATTR InstName R4
SYMATTR Value 10K
SYMBOL res 288 928 R90
WINDOW 0 0 56 VBottom 2
WINDOW 3 32 56 VTop 2
SYMATTR InstName R10
SYMATTR Value 1042
SYMBOL LED 720 0 R90
WINDOW 0 0 32 VBottom 2
WINDOW 3 28 32 VBottom 2
SYMATTR InstName D2
SYMATTR Value QTLP690C
SYMATTR Description Diode
SYMATTR Type diode
SYMBOL Opamps\\TL081 -256 512 R0
SYMATTR InstName U10
SYMBOL res 896 1312 R90
WINDOW 0 0 56 VBottom 2
WINDOW 3 32 56 VTop 2
SYMATTR InstName R18
SYMATTR Value 100k
SYMBOL nmos 688 1408 R0
SYMATTR InstName M1
SYMATTR Value Si9420DY
SYMBOL voltage -496 1088 R0
WINDOW 123 0 0 Left 2
WINDOW 39 0 0 Left 2
SYMATTR InstName V3
SYMATTR Value 3.4
SYMBOL res 880 208 R90
WINDOW 0 0 56 VBottom 2
WINDOW 3 32 56 VTop 2
SYMATTR InstName R15
SYMATTR Value 100k
SYMBOL nmos 688 288 R0
SYMATTR InstName M2
SYMATTR Value Si9420DY
SYMBOL res 1056 272 R90
WINDOW 0 0 56 VBottom 2
WINDOW 3 32 56 VTop 2
SYMATTR InstName Vibrator1
SYMATTR Value 33
SYMBOL res 1056 1392 R90
WINDOW 0 0 56 VBottom 2
WINDOW 3 32 56 VTop 2
SYMATTR InstName Vibrator2
SYMATTR Value 33
SYMBOL Comparators\\LM311 528 -208 M180
SYMATTR InstName U1
SYMBOL Comparators\\LM311 528 16 M180
SYMATTR InstName U2
SYMBOL Comparators\\LM311 528 224 M180
SYMATTR InstName U3
SYMBOL Comparators\\LM311 528 496 R0
SYMATTR InstName U4
SYMBOL Comparators\\LM311 528 752 R0
SYMATTR InstName U5
SYMBOL Comparators\\LM311 528 1120 R0
SYMATTR InstName U6
SYMBOL Comparators\\LM311 528 1328 R0
SYMATTR InstName U7
SYMBOL Comparators\\LM311 528 1600 R0
SYMATTR InstName U8
SYMBOL BAT41 1184 1392 R90
WINDOW 0 0 32 VBottom 2
WINDOW 3 32 32 VTop 2
SYMATTR InstName D6
SYMBOL BAT41 1184 1392 R90
WINDOW 0 0 32 VBottom 2
WINDOW 3 32 32 VTop 2
SYMATTR InstName D7
SYMBOL BAT41 1184 272 R90
WINDOW 0 0 32 VBottom 2
WINDOW 3 32 32 VTop 2
SYMATTR InstName D8
TEXT -376 984 Left 2 !.tran 0.1
