Version 4
SHEET 1 880 2496
WIRE 288 -608 -144 -608
WIRE 400 -496 -16 -496
WIRE 624 -480 464 -480
WIRE 768 -480 688 -480
WIRE 288 -464 288 -608
WIRE 400 -464 288 -464
WIRE -176 -368 -304 -368
WIRE -16 -368 -16 -496
WIRE -16 -368 -96 -368
WIRE 32 -368 -16 -368
WIRE 128 -368 112 -368
WIRE 400 -304 -16 -304
WIRE 624 -288 464 -288
WIRE 768 -288 688 -288
WIRE 848 -288 848 -480
WIRE 288 -272 288 -464
WIRE 400 -272 288 -272
WIRE -304 -240 -304 -368
WIRE -176 -240 -304 -240
WIRE -16 -240 -16 -304
WIRE -16 -240 -96 -240
WIRE 32 -240 -16 -240
WIRE 128 -240 128 -368
WIRE 128 -240 112 -240
WIRE 288 -128 288 -272
WIRE 400 -128 288 -128
WIRE 512 -112 464 -112
WIRE 608 -112 576 -112
WIRE 624 -112 608 -112
WIRE 768 -112 688 -112
WIRE 848 -112 848 -288
WIRE 400 -96 -16 -96
WIRE -304 0 -304 -240
WIRE -176 0 -304 0
WIRE -16 0 -16 -96
WIRE -16 0 -96 0
WIRE 32 0 -16 0
WIRE 128 0 128 -240
WIRE 128 0 112 0
WIRE 400 48 -16 48
WIRE 512 64 464 64
WIRE 608 64 608 -112
WIRE 608 64 576 64
WIRE 288 80 288 -128
WIRE 400 80 288 80
WIRE -304 176 -304 0
WIRE -176 176 -304 176
WIRE -16 176 -16 48
WIRE -16 176 -96 176
WIRE 128 176 128 0
WIRE 128 176 -16 176
WIRE 128 240 128 176
WIRE 848 240 848 -112
WIRE -304 416 -304 176
WIRE -304 416 -336 416
WIRE -304 432 -304 416
WIRE -304 528 -304 512
WIRE -208 528 -304 528
WIRE -336 544 -528 544
WIRE -208 544 -208 528
WIRE -336 576 -336 544
WIRE -304 576 -304 528
WIRE 288 576 288 80
WIRE 384 576 288 576
WIRE 496 592 448 592
WIRE 592 592 560 592
WIRE 384 608 -32 608
WIRE -320 672 -320 640
WIRE -208 672 -208 624
WIRE -208 672 -320 672
WIRE -320 704 -320 672
WIRE -192 704 -320 704
WIRE -32 704 -32 608
WIRE -32 704 -112 704
WIRE 112 704 -32 704
WIRE 384 752 -32 752
WIRE 496 768 448 768
WIRE 592 768 592 592
WIRE 592 768 560 768
WIRE 608 768 592 768
WIRE 752 768 672 768
WIRE 288 784 288 576
WIRE 384 784 288 784
WIRE -320 880 -320 704
WIRE -192 880 -320 880
WIRE -32 880 -32 752
WIRE -32 880 -112 880
WIRE 16 880 -32 880
WIRE 112 880 112 704
WIRE 112 880 96 880
WIRE 288 960 288 784
WIRE 384 960 288 960
WIRE 608 976 448 976
WIRE 752 976 672 976
WIRE 832 976 832 768
WIRE 384 992 -32 992
WIRE -320 1056 -320 880
WIRE -192 1056 -320 1056
WIRE -32 1056 -32 992
WIRE -32 1056 -112 1056
WIRE 16 1056 -32 1056
WIRE 112 1056 112 880
WIRE 112 1056 96 1056
WIRE 288 1184 288 960
WIRE 384 1184 288 1184
WIRE 608 1200 448 1200
WIRE 736 1200 672 1200
WIRE 832 1200 832 976
WIRE 832 1200 816 1200
WIRE 384 1216 -32 1216
WIRE -320 1312 -320 1056
WIRE -192 1312 -320 1312
WIRE -32 1312 -32 1216
WIRE -32 1312 -112 1312
WIRE 16 1312 -32 1312
WIRE 112 1312 112 1056
WIRE 112 1312 96 1312
WIRE 112 1392 112 1312
WIRE 832 1392 832 1200
FLAG -416 416 0
FLAG -144 -528 0
FLAG -624 96 0
FLAG -768 96 0
FLAG 432 -448 Vcc
FLAG 432 -256 Vcc
FLAG 432 -80 Vcc
FLAG 432 96 Vcc
FLAG 432 32 Vdd
FLAG 432 -144 Vdd
FLAG 432 -320 Vdd
FLAG 432 -512 Vdd
FLAG -768 16 Vcc
FLAG -624 16 Vdd
FLAG 416 1232 Vcc
FLAG 416 1168 Vdd
FLAG 416 1008 Vcc
FLAG 416 944 Vdd
FLAG 416 800 Vcc
FLAG 416 736 Vdd
FLAG 416 624 Vcc
FLAG 416 560 Vdd
FLAG 128 240 0
FLAG 848 240 0
FLAG -528 544 0
FLAG -352 608 Vcc
FLAG -288 608 Vdd
FLAG 112 1392 0
FLAG 832 1392 0
SYMBOL res 128 -16 R90
WINDOW 0 0 56 VBottom 2
WINDOW 3 32 56 VTop 2
SYMATTR InstName R11
SYMATTR Value 779.5791652
SYMBOL res -80 -16 R90
WINDOW 0 0 56 VBottom 2
WINDOW 3 32 56 VTop 2
SYMATTR InstName R3
SYMATTR Value 10K
SYMBOL res -80 -384 R90
WINDOW 0 0 56 VBottom 2
WINDOW 3 32 56 VTop 2
SYMATTR InstName R1
SYMATTR Value 10K
SYMBOL res 128 -384 R90
WINDOW 0 0 56 VBottom 2
WINDOW 3 32 56 VTop 2
SYMATTR InstName R9
SYMATTR Value 8872.197479
SYMBOL voltage -320 416 R90
WINDOW 0 -32 56 VBottom 2
WINDOW 3 32 56 VTop 2
WINDOW 123 0 0 Left 2
WINDOW 39 0 0 Left 2
SYMATTR InstName Vref
SYMATTR Value 2.5
SYMBOL Misc\\signal -144 -624 R0
WINDOW 123 24 44 Left 2
WINDOW 39 0 0 Left 2
SYMATTR InstName Signal
SYMATTR Value SINE(0 2.5 100)
SYMBOL res -80 -256 R90
WINDOW 0 0 56 VBottom 2
WINDOW 3 32 56 VTop 2
SYMATTR InstName R2
SYMATTR Value 10K
SYMBOL res 128 -256 R90
WINDOW 0 0 56 VBottom 2
WINDOW 3 32 56 VTop 2
SYMATTR InstName R10
SYMATTR Value 4071.030562
SYMBOL Opamps\\TL081 432 -416 M180
SYMATTR InstName U3
SYMBOL Opamps\\TL081 432 -224 M180
SYMATTR InstName U4
SYMBOL Opamps\\TL081 432 -48 M180
SYMATTR InstName U5
SYMBOL Opamps\\TL081 432 128 M180
SYMATTR InstName U6
SYMBOL voltage -768 0 R0
WINDOW 123 0 0 Left 2
WINDOW 39 0 0 Left 2
SYMATTR InstName V1
SYMATTR Value 5.5
SYMBOL voltage -624 0 R0
WINDOW 123 0 0 Left 2
WINDOW 39 0 0 Left 2
SYMATTR InstName V2
SYMATTR Value -5.5
SYMBOL diode 688 -496 R90
WINDOW 0 0 32 VBottom 2
WINDOW 3 32 32 VTop 2
SYMATTR InstName D1
SYMBOL diode 688 -304 R90
WINDOW 0 0 32 VBottom 2
WINDOW 3 32 32 VTop 2
SYMATTR InstName D2
SYMBOL res 864 -496 R90
WINDOW 0 0 56 VBottom 2
WINDOW 3 32 56 VTop 2
SYMATTR InstName R15
SYMATTR Value 1.65K
SYMBOL res 864 -304 R90
WINDOW 0 0 56 VBottom 2
WINDOW 3 32 56 VTop 2
SYMATTR InstName R16
SYMATTR Value 1.65K
SYMBOL res 864 -128 R90
WINDOW 0 0 56 VBottom 2
WINDOW 3 32 56 VTop 2
SYMATTR InstName R17
SYMATTR Value 1.65K
SYMBOL res -80 160 R90
WINDOW 0 0 56 VBottom 2
WINDOW 3 32 56 VTop 2
SYMATTR InstName R4
SYMATTR Value 10K
SYMBOL res -96 1296 R90
WINDOW 0 0 56 VBottom 2
WINDOW 3 32 56 VTop 2
SYMATTR InstName R8
SYMATTR Value 10K
SYMBOL res 112 1296 R90
WINDOW 0 0 56 VBottom 2
WINDOW 3 32 56 VTop 2
SYMATTR InstName R14
SYMATTR Value 8555.629778
SYMBOL Opamps\\TL081 416 1264 M180
SYMATTR InstName U10
SYMBOL res 832 1184 R90
WINDOW 0 0 56 VBottom 2
WINDOW 3 32 56 VTop 2
SYMATTR InstName R20
SYMATTR Value 1.65K
SYMBOL res -96 1040 R90
WINDOW 0 0 56 VBottom 2
WINDOW 3 32 56 VTop 2
SYMATTR InstName R7
SYMATTR Value 10K
SYMBOL res 112 1040 R90
WINDOW 0 0 56 VBottom 2
WINDOW 3 32 56 VTop 2
SYMATTR InstName R13
SYMATTR Value 3961.800514
SYMBOL Opamps\\TL081 416 1040 M180
SYMATTR InstName U11
SYMBOL res 112 864 R90
WINDOW 0 0 56 VBottom 2
WINDOW 3 32 56 VTop 2
SYMATTR InstName R12
SYMATTR Value 763.3357730
SYMBOL res -96 864 R90
WINDOW 0 0 56 VBottom 2
WINDOW 3 32 56 VTop 2
SYMATTR InstName R6
SYMATTR Value 10K
SYMBOL Opamps\\TL081 416 832 M180
SYMATTR InstName U12
SYMBOL res 848 752 R90
WINDOW 0 0 56 VBottom 2
WINDOW 3 32 56 VTop 2
SYMATTR InstName R18
SYMATTR Value 1.65K
SYMBOL diode 672 1184 R90
WINDOW 0 0 32 VBottom 2
WINDOW 3 32 32 VTop 2
SYMATTR InstName D6
SYMBOL diode 672 960 R90
WINDOW 0 0 32 VBottom 2
WINDOW 3 32 32 VTop 2
SYMATTR InstName D5
SYMBOL res 848 960 R90
WINDOW 0 0 56 VBottom 2
WINDOW 3 32 56 VTop 2
SYMATTR InstName R19
SYMATTR Value 1.65K
SYMBOL Opamps\\TL081 416 656 M180
SYMATTR InstName U13
SYMBOL res -96 688 R90
WINDOW 0 0 56 VBottom 2
WINDOW 3 32 56 VTop 2
SYMATTR InstName R5
SYMATTR Value 10K
SYMBOL Opamps\\TL081 -384 608 M90
WINDOW 0 30 47 VLeft 2
WINDOW 3 48 128 VLeft 2
SYMATTR InstName U2
SYMBOL res -320 416 R0
SYMATTR InstName R23
SYMATTR Value 10K
SYMBOL res -224 528 R0
SYMATTR InstName R24
SYMATTR Value 10K
SYMBOL diode 576 -128 R90
WINDOW 0 0 32 VBottom 2
WINDOW 3 32 32 VTop 2
SYMATTR InstName D7
SYMBOL diode 576 48 R90
WINDOW 0 0 32 VBottom 2
WINDOW 3 32 32 VTop 2
SYMATTR InstName D8
SYMBOL diode 560 576 R90
WINDOW 0 0 32 VBottom 2
WINDOW 3 32 32 VTop 2
SYMATTR InstName D9
SYMBOL diode 560 752 R90
WINDOW 0 0 32 VBottom 2
WINDOW 3 32 32 VTop 2
SYMATTR InstName D10
SYMBOL diode 688 -128 R90
WINDOW 0 0 32 VBottom 2
WINDOW 3 32 32 VTop 2
SYMATTR InstName D3
SYMBOL diode 672 752 R90
WINDOW 0 0 32 VBottom 2
WINDOW 3 32 32 VTop 2
SYMATTR InstName D4
TEXT -792 440 Left 2 !.tran 0.1
