Version 4
SHEET 1 880 2496
WIRE 288 -608 -144 -608
WIRE 400 -496 -16 -496
WIRE 624 -480 464 -480
WIRE 768 -480 688 -480
WIRE 288 -464 288 -608
WIRE 400 -464 288 -464
WIRE -176 -368 -304 -368
WIRE -16 -368 -16 -496
WIRE -16 -368 -96 -368
WIRE 32 -368 -16 -368
WIRE 128 -368 112 -368
WIRE 400 -304 -16 -304
WIRE 624 -288 464 -288
WIRE 768 -288 688 -288
WIRE 848 -288 848 -480
WIRE 288 -272 288 -464
WIRE 400 -272 288 -272
WIRE -304 -240 -304 -368
WIRE -176 -240 -304 -240
WIRE -16 -240 -16 -304
WIRE -16 -240 -96 -240
WIRE 32 -240 -16 -240
WIRE 128 -240 128 -368
WIRE 128 -240 112 -240
WIRE 288 -128 288 -272
WIRE 400 -128 288 -128
WIRE 560 -112 464 -112
WIRE 624 -112 560 -112
WIRE 768 -112 688 -112
WIRE 848 -112 848 -288
WIRE 400 -96 -16 -96
WIRE -304 0 -304 -240
WIRE -176 0 -304 0
WIRE -16 0 -16 -96
WIRE -16 0 -96 0
WIRE 32 0 -16 0
WIRE 128 0 128 -240
WIRE 128 0 112 0
WIRE 400 48 -16 48
WIRE 560 64 560 -112
WIRE 560 64 464 64
WIRE 288 80 288 -128
WIRE 400 80 288 80
WIRE -304 176 -304 0
WIRE -176 176 -304 176
WIRE -16 176 -16 48
WIRE -16 176 -96 176
WIRE 128 176 128 0
WIRE 128 176 -16 176
WIRE 128 240 128 176
WIRE 848 240 848 -112
WIRE -304 272 -304 176
WIRE -304 272 -432 272
WIRE -432 304 -432 272
WIRE -304 352 -304 272
WIRE -432 448 -432 384
WIRE -320 448 -320 416
WIRE -320 448 -432 448
WIRE -288 528 -288 416
WIRE -288 528 -320 528
WIRE -288 544 -288 528
WIRE -288 640 -288 624
WIRE -192 640 -288 640
WIRE -320 656 -512 656
WIRE -192 656 -192 640
WIRE -320 688 -320 656
WIRE -288 688 -288 640
WIRE 288 688 288 80
WIRE 400 688 288 688
WIRE 560 704 464 704
WIRE 400 720 -16 720
WIRE -304 784 -304 752
WIRE -192 784 -192 736
WIRE -192 784 -304 784
WIRE -304 816 -304 784
WIRE -176 816 -304 816
WIRE -16 816 -16 720
WIRE -16 816 -96 816
WIRE 128 816 -16 816
WIRE 400 864 -16 864
WIRE 560 880 560 704
WIRE 560 880 464 880
WIRE 624 880 560 880
WIRE 768 880 688 880
WIRE 288 896 288 688
WIRE 400 896 288 896
WIRE -304 992 -304 816
WIRE -176 992 -304 992
WIRE -16 992 -16 864
WIRE -16 992 -96 992
WIRE 32 992 -16 992
WIRE 128 992 128 816
WIRE 128 992 112 992
WIRE 288 1072 288 896
WIRE 400 1072 288 1072
WIRE 624 1088 464 1088
WIRE 768 1088 688 1088
WIRE 848 1088 848 880
WIRE 400 1104 -16 1104
WIRE -304 1168 -304 992
WIRE -176 1168 -304 1168
WIRE -16 1168 -16 1104
WIRE -16 1168 -96 1168
WIRE 32 1168 -16 1168
WIRE 128 1168 128 992
WIRE 128 1168 112 1168
WIRE 288 1296 288 1072
WIRE 400 1296 288 1296
WIRE 624 1312 464 1312
WIRE 752 1312 688 1312
WIRE 848 1312 848 1088
WIRE 848 1312 832 1312
WIRE 400 1328 -16 1328
WIRE -304 1424 -304 1168
WIRE -176 1424 -304 1424
WIRE -16 1424 -16 1328
WIRE -16 1424 -96 1424
WIRE 32 1424 -16 1424
WIRE 128 1424 128 1168
WIRE 128 1424 112 1424
WIRE 128 1504 128 1424
WIRE 848 1504 848 1312
FLAG -400 528 0
FLAG -144 -528 0
FLAG -272 384 Vcc
FLAG -336 384 Vdd
FLAG -512 448 0
FLAG -624 96 0
FLAG -768 96 0
FLAG 432 -448 Vcc
FLAG 432 -256 Vcc
FLAG 432 -80 Vcc
FLAG 432 96 Vcc
FLAG 432 32 Vdd
FLAG 432 -144 Vdd
FLAG 432 -320 Vdd
FLAG 432 -512 Vdd
FLAG -768 16 Vcc
FLAG -624 16 Vdd
FLAG 432 1344 Vcc
FLAG 432 1280 Vdd
FLAG 432 1120 Vcc
FLAG 432 1056 Vdd
FLAG 432 912 Vcc
FLAG 432 848 Vdd
FLAG 432 736 Vcc
FLAG 432 672 Vdd
FLAG 128 240 0
FLAG 848 240 0
FLAG -512 656 0
FLAG -336 720 Vcc
FLAG -272 720 Vdd
FLAG 128 1504 0
FLAG 848 1504 0
SYMBOL res 128 -16 R90
WINDOW 0 0 56 VBottom 2
WINDOW 3 32 56 VTop 2
SYMATTR InstName R3
SYMATTR Value 692.8999
SYMBOL res -80 -16 R90
WINDOW 0 0 56 VBottom 2
WINDOW 3 32 56 VTop 2
SYMATTR InstName R2
SYMATTR Value 10K
SYMBOL res -80 -384 R90
WINDOW 0 0 56 VBottom 2
WINDOW 3 32 56 VTop 2
SYMATTR InstName R6
SYMATTR Value 10K
SYMBOL res 128 -384 R90
WINDOW 0 0 56 VBottom 2
WINDOW 3 32 56 VTop 2
SYMATTR InstName R7
SYMATTR Value 7341.842397
SYMBOL voltage -304 528 R90
WINDOW 0 -32 56 VBottom 2
WINDOW 3 32 56 VTop 2
WINDOW 123 0 0 Left 2
WINDOW 39 0 0 Left 2
SYMATTR InstName V1
SYMATTR Value 2.5
SYMBOL Misc\\signal -144 -624 R0
WINDOW 123 24 44 Left 2
WINDOW 39 0 0 Left 2
SYMATTR InstName V2
SYMATTR Value SINE(0 5 100)
SYMBOL res -80 -256 R90
WINDOW 0 0 56 VBottom 2
WINDOW 3 32 56 VTop 2
SYMATTR InstName R4
SYMATTR Value 10K
SYMBOL res 128 -256 R90
WINDOW 0 0 56 VBottom 2
WINDOW 3 32 56 VTop 2
SYMATTR InstName R5
SYMATTR Value 3564.839935
SYMBOL Opamps\\TL081 -240 384 M270
WINDOW 0 31 46 VLeft 2
WINDOW 3 48 128 VLeft 2
SYMATTR InstName U1
SYMBOL res -416 432 R90
WINDOW 0 0 56 VBottom 2
WINDOW 3 32 56 VTop 2
SYMATTR InstName R12
SYMATTR Value 10K
SYMBOL res -416 400 R180
WINDOW 0 36 76 Left 2
WINDOW 3 36 40 Left 2
SYMATTR InstName R11
SYMATTR Value 10K
SYMBOL Opamps\\TL081 432 -416 M180
SYMATTR InstName U3
SYMBOL Opamps\\TL081 432 -224 M180
SYMATTR InstName U4
SYMBOL Opamps\\TL081 432 -48 M180
SYMATTR InstName U5
SYMBOL Opamps\\TL081 432 128 M180
SYMATTR InstName U6
SYMBOL voltage -768 0 R0
SYMATTR InstName V3
SYMATTR Value 7
SYMBOL voltage -624 0 R0
SYMATTR InstName V4
SYMATTR Value -7
SYMBOL diode 688 -496 R90
WINDOW 0 0 32 VBottom 2
WINDOW 3 32 32 VTop 2
SYMATTR InstName D1
SYMBOL diode 688 -304 R90
WINDOW 0 0 32 VBottom 2
WINDOW 3 32 32 VTop 2
SYMATTR InstName D2
SYMBOL res 864 -496 R90
WINDOW 0 0 56 VBottom 2
WINDOW 3 32 56 VTop 2
SYMATTR InstName R8
SYMATTR Value 2.4K
SYMBOL res 864 -304 R90
WINDOW 0 0 56 VBottom 2
WINDOW 3 32 56 VTop 2
SYMATTR InstName R9
SYMATTR Value 2.4K
SYMBOL res 864 -128 R90
WINDOW 0 0 56 VBottom 2
WINDOW 3 32 56 VTop 2
SYMATTR InstName R10
SYMATTR Value 2.4K
SYMBOL diode 688 -128 R90
WINDOW 0 0 32 VBottom 2
WINDOW 3 32 32 VTop 2
SYMATTR InstName D3
SYMBOL res -80 160 R90
WINDOW 0 0 56 VBottom 2
WINDOW 3 32 56 VTop 2
SYMATTR InstName R1
SYMATTR Value 10K
SYMBOL res -80 1408 R90
WINDOW 0 0 56 VBottom 2
WINDOW 3 32 56 VTop 2
SYMATTR InstName R18
SYMATTR Value 10K
SYMBOL res 128 1408 R90
WINDOW 0 0 56 VBottom 2
WINDOW 3 32 56 VTop 2
SYMATTR InstName R19
SYMATTR Value 7341.842397
SYMBOL Opamps\\TL081 432 1376 M180
SYMATTR InstName U10
SYMBOL res 848 1296 R90
WINDOW 0 0 56 VBottom 2
WINDOW 3 32 56 VTop 2
SYMATTR InstName R22
SYMATTR Value 2.4K
SYMBOL res -80 1152 R90
WINDOW 0 0 56 VBottom 2
WINDOW 3 32 56 VTop 2
SYMATTR InstName R16
SYMATTR Value 10K
SYMBOL res 128 1152 R90
WINDOW 0 0 56 VBottom 2
WINDOW 3 32 56 VTop 2
SYMATTR InstName R17
SYMATTR Value 3564.839935
SYMBOL Opamps\\TL081 432 1152 M180
SYMATTR InstName U11
SYMBOL res 128 976 R90
WINDOW 0 0 56 VBottom 2
WINDOW 3 32 56 VTop 2
SYMATTR InstName R15
SYMATTR Value 692.8999
SYMBOL res -80 976 R90
WINDOW 0 0 56 VBottom 2
WINDOW 3 32 56 VTop 2
SYMATTR InstName R14
SYMATTR Value 10K
SYMBOL Opamps\\TL081 432 944 M180
SYMATTR InstName U12
SYMBOL res 864 864 R90
WINDOW 0 0 56 VBottom 2
WINDOW 3 32 56 VTop 2
SYMATTR InstName R20
SYMATTR Value 2.4K
SYMBOL diode 688 1296 R90
WINDOW 0 0 32 VBottom 2
WINDOW 3 32 32 VTop 2
SYMATTR InstName D8
SYMBOL diode 688 1072 R90
WINDOW 0 0 32 VBottom 2
WINDOW 3 32 32 VTop 2
SYMATTR InstName D9
SYMBOL res 864 1072 R90
WINDOW 0 0 56 VBottom 2
WINDOW 3 32 56 VTop 2
SYMATTR InstName R21
SYMATTR Value 2.4K
SYMBOL Opamps\\TL081 432 768 M180
SYMATTR InstName U13
SYMBOL res -80 800 R90
WINDOW 0 0 56 VBottom 2
WINDOW 3 32 56 VTop 2
SYMATTR InstName R13
SYMATTR Value 10K
SYMBOL Opamps\\TL081 -368 720 M90
WINDOW 0 30 47 VLeft 2
WINDOW 3 48 128 VLeft 2
SYMATTR InstName U2
SYMBOL res -304 528 R0
SYMATTR InstName R23
SYMATTR Value 10K
SYMBOL res -208 640 R0
SYMATTR InstName R24
SYMATTR Value 20K
SYMBOL diode 688 864 R90
WINDOW 0 0 32 VBottom 2
WINDOW 3 32 32 VTop 2
SYMATTR InstName D4
TEXT -792 440 Left 2 !.tran 0.1
