Version 4
SHEET 1 2088 1212
WIRE 640 -240 528 -240
WIRE 528 -128 528 -240
WIRE 640 -112 640 -160
WIRE 832 -112 640 -112
WIRE 832 -80 832 -112
WIRE 640 -48 640 -112
WIRE 832 64 832 0
WIRE 1120 64 832 64
WIRE 1088 96 1008 96
WIRE 832 144 832 64
WIRE 1088 144 1088 96
WIRE 1120 144 1120 64
WIRE 1008 288 1008 96
WIRE 1104 288 1104 208
WIRE 1104 288 1008 288
WIRE 352 336 224 336
WIRE 480 336 352 336
WIRE 672 336 560 336
WIRE 784 336 672 336
WIRE 928 352 848 352
WIRE 1024 352 928 352
WIRE 784 368 736 368
WIRE 224 384 224 336
WIRE 352 384 352 336
WIRE 672 384 672 336
WIRE 1024 384 1024 352
WIRE 736 432 736 368
WIRE 928 432 928 352
WIRE 928 432 736 432
WIRE 1456 432 1344 432
WIRE 1104 448 1104 288
WIRE 1808 464 1776 464
WIRE 1952 464 1888 464
WIRE 224 480 224 464
WIRE 352 480 352 448
WIRE 672 480 672 448
WIRE 1024 544 1024 464
WIRE 1024 544 992 544
WIRE 1344 544 1344 432
WIRE 1104 560 1104 528
WIRE 1104 560 1056 560
WIRE 1168 560 1104 560
WIRE 1456 560 1456 512
WIRE 1568 560 1456 560
WIRE 1696 576 1632 576
WIRE 1776 576 1776 464
WIRE 1808 576 1776 576
WIRE 1024 592 1024 544
WIRE 1056 592 1056 560
WIRE 1168 592 1168 560
WIRE 1568 592 1536 592
WIRE 1952 592 1952 464
WIRE 1952 592 1872 592
WIRE 2016 592 1952 592
WIRE 1808 608 1776 608
WIRE 1456 624 1456 560
WIRE 1536 656 1536 592
WIRE 1696 656 1696 576
WIRE 1696 656 1536 656
WIRE 1344 688 1344 624
WIRE 1776 688 1776 608
WIRE 1040 720 1040 656
WIRE 1168 720 1168 672
WIRE 1168 720 1040 720
WIRE 1040 832 1040 720
WIRE 1216 832 1040 832
WIRE 1360 848 1280 848
WIRE 1440 848 1360 848
WIRE 1600 848 1440 848
WIRE 1216 864 1168 864
WIRE 1744 864 1664 864
WIRE 2016 864 1744 864
WIRE 1600 880 1552 880
WIRE 1168 960 1168 864
WIRE 1232 960 1168 960
WIRE 1360 960 1360 848
WIRE 1360 960 1312 960
WIRE 1168 976 1168 960
WIRE 1552 976 1552 880
WIRE 1616 976 1552 976
WIRE 1744 976 1744 864
WIRE 1744 976 1696 976
WIRE 1072 992 880 992
WIRE 1552 992 1552 976
WIRE 1072 1072 1072 992
WIRE 1072 1072 1024 1072
WIRE 304 1088 272 1088
WIRE 880 1088 880 992
WIRE 880 1088 416 1088
WIRE 960 1088 880 1088
WIRE 1440 1104 1440 848
WIRE 1440 1104 1024 1104
WIRE 272 1120 272 1088
WIRE 416 1120 416 1088
WIRE 416 1120 272 1120
FLAG 672 480 0
FLAG 352 480 0
FLAG 224 480 0
FLAG 816 320 Vcc
FLAG 816 384 Vdd
FLAG 688 800 0
FLAG 592 800 0
FLAG 592 720 Vcc
FLAG 688 720 Vdd
FLAG 1072 624 Vcc
FLAG 1008 624 Vdd
FLAG 912 544 0
FLAG 832 224 0
FLAG 640 16 0
FLAG 528 -48 0
FLAG 304 1088 Vout
IOPIN 304 1088 Out
FLAG 1168 1056 0
FLAG 1248 816 Vcc
FLAG 1248 880 Vdd
FLAG 1552 1072 0
FLAG 1632 832 Vcc
FLAG 1632 896 Vdd
FLAG 1456 688 0
FLAG 1776 688 0
FLAG 1600 544 Vcc
FLAG 1840 624 Vcc
FLAG 1600 608 Vdd
FLAG 1840 560 Vdd
FLAG 1344 688 0
FLAG 1136 176 Vcc
FLAG 1072 176 Vdd
FLAG 992 1120 Vcc
FLAG 992 1056 Vdd
SYMBOL Misc/signal 464 336 R270
WINDOW 0 32 56 VTop 2
WINDOW 3 -32 56 VBottom 2
WINDOW 123 0 0 Left 2
WINDOW 39 0 0 Left 2
SYMATTR InstName Accelerometer
SYMATTR Value SINE(3.8675 0.3313 10)
SYMBOL cap 656 384 R0
SYMATTR InstName C2
SYMATTR Value 200n
SYMBOL cap 336 384 R0
SYMATTR InstName C1
SYMATTR Value 100n
SYMBOL voltage 224 368 R0
SYMATTR InstName V1
SYMATTR Value 5.5
SYMBOL TL081 816 288 R0
SYMATTR InstName U1
SYMBOL voltage 592 704 R0
SYMATTR InstName V4
SYMATTR Value 5.5
SYMBOL voltage 688 704 R0
SYMATTR InstName V5
SYMATTR Value -5.5
SYMBOL res 1088 432 R0
SYMATTR InstName R4
SYMATTR Value 100k
SYMBOL res 1152 576 R0
SYMATTR InstName R5
SYMATTR Value 100k
SYMBOL res 1008 368 R0
SYMATTR InstName R6
SYMATTR Value 100k
SYMBOL res 1008 528 R90
WINDOW 0 0 56 VBottom 2
WINDOW 3 32 56 VTop 2
SYMATTR InstName R7
SYMATTR Value 100k
SYMBOL Opamps\\UniversalOpamp2 1040 624 R90
SYMATTR InstName U2
SYMBOL References\\LT1634-2.5 640 -16 R0
SYMATTR InstName U3
SYMBOL res 656 -144 R180
WINDOW 0 36 76 Left 2
WINDOW 3 36 40 Left 2
SYMATTR InstName R1
SYMATTR Value 15K
SYMBOL res 848 16 R180
WINDOW 0 36 76 Left 2
WINDOW 3 36 40 Left 2
SYMATTR InstName R2
SYMATTR Value 10k
SYMBOL res 848 240 R180
WINDOW 0 36 76 Left 2
WINDOW 3 36 40 Left 2
SYMATTR InstName R3
SYMATTR Value 18.82K
SYMBOL voltage 528 -144 R0
WINDOW 123 0 0 Left 2
WINDOW 39 0 0 Left 2
SYMATTR InstName V2
SYMATTR Value 5.5
SYMBOL res 1152 960 R0
WINDOW 0 66 40 Right 2
WINDOW 3 81 76 Right 2
SYMATTR InstName R8
SYMATTR Value 10K
SYMBOL res 1328 944 R90
WINDOW 0 0 56 VBottom 2
WINDOW 3 32 56 VTop 2
SYMATTR InstName R9
SYMATTR Value 81k
SYMBOL Opamps\\TL081 1248 784 R0
WINDOW 3 85 96 Right 2
SYMATTR InstName U4
SYMBOL res 1536 976 R0
WINDOW 0 66 40 Right 2
WINDOW 3 81 76 Right 2
SYMATTR InstName R10
SYMATTR Value 10K
SYMBOL res 1712 960 R90
WINDOW 0 0 56 VBottom 2
WINDOW 3 32 56 VTop 2
SYMATTR InstName R11
SYMATTR Value 26K
SYMBOL Opamps\\TL081 1632 800 R0
WINDOW 3 85 96 Right 2
SYMATTR InstName U5
SYMBOL References\\LT1634-2.5 1456 656 R0
SYMATTR InstName U6
SYMBOL res 1472 528 R180
WINDOW 0 36 76 Left 2
WINDOW 3 36 40 Left 2
SYMATTR InstName R12
SYMATTR Value 15K
SYMBOL voltage 1344 528 R0
WINDOW 123 0 0 Left 2
WINDOW 39 0 0 Left 2
SYMATTR InstName V6
SYMATTR Value 5.5
SYMBOL Opamps\\TL081 1600 512 R0
SYMATTR InstName U7
SYMBOL Opamps\\TL081 1840 656 M180
SYMATTR InstName U8
SYMBOL res 1792 560 R90
WINDOW 0 0 56 VBottom 2
WINDOW 3 32 56 VTop 2
SYMATTR InstName R13
SYMATTR Value 100K
SYMBOL res 1904 480 M270
WINDOW 0 32 56 VTop 2
WINDOW 3 0 56 VBottom 2
SYMATTR InstName R14
SYMATTR Value 100K
SYMBOL Opamps\\TL081 1168 176 R90
WINDOW 3 85 96 Right 2
SYMATTR InstName U9
SYMBOL Opamps\\TL081 992 1152 R180
WINDOW 3 85 96 Right 2
SYMATTR InstName U10
TEXT 640 856 Left 2 !.tran 1
