Version 4
SHEET 1 3696 2372
WIRE 160 -384 160 -400
WIRE 448 -384 448 -400
WIRE 784 -384 784 -400
WIRE 1168 -384 1168 -400
WIRE 1392 -384 1392 -400
WIRE 784 -208 784 -384
WIRE 784 -208 624 -208
WIRE 320 -144 288 -144
WIRE 416 -144 400 -144
WIRE 160 -128 160 -384
WIRE 160 -128 128 -128
WIRE 176 -128 160 -128
WIRE 288 -128 288 -144
WIRE 288 -128 256 -128
WIRE 912 -64 800 -64
WIRE 1136 -64 976 -64
WIRE 288 -32 288 -128
WIRE 320 -32 288 -32
WIRE 416 -16 416 -144
WIRE 416 -16 384 -16
WIRE 448 -16 448 -384
WIRE 448 -16 416 -16
WIRE 464 -16 448 -16
WIRE 176 0 160 0
WIRE 272 0 256 0
WIRE 320 0 272 0
WIRE 592 0 528 0
WIRE 624 0 624 -208
WIRE 624 0 592 0
WIRE 800 0 800 -64
WIRE 832 0 800 0
WIRE 976 0 912 0
WIRE 1024 0 976 0
WIRE 464 16 432 16
WIRE 624 16 624 0
WIRE 1136 16 1136 -64
WIRE 1136 16 1088 16
WIRE 1168 16 1168 -384
WIRE 1168 16 1136 16
WIRE 1200 16 1168 16
WIRE -336 32 -432 32
WIRE -240 32 -336 32
WIRE -80 32 -160 32
WIRE 0 32 -80 32
WIRE 272 32 272 0
WIRE 800 32 800 0
WIRE 1024 32 1008 32
WIRE 1344 32 1264 32
WIRE 1392 32 1392 -384
WIRE 1392 32 1344 32
WIRE 1504 32 1392 32
WIRE 128 48 64 48
WIRE 160 48 160 0
WIRE 160 48 128 48
WIRE 1200 48 1152 48
WIRE 0 64 -16 64
WIRE -336 80 -336 32
WIRE -80 80 -80 32
WIRE 976 80 976 0
WIRE 1472 80 1376 80
WIRE 688 96 624 96
WIRE 432 112 432 16
WIRE 480 112 432 112
WIRE 592 112 592 0
WIRE 592 112 560 112
WIRE 800 112 752 112
WIRE 1008 112 1008 32
WIRE 1136 112 1136 16
WIRE 1136 112 1008 112
WIRE -16 128 -16 64
WIRE 128 128 128 48
WIRE 128 128 -16 128
WIRE 432 128 432 112
WIRE 624 128 624 96
WIRE 688 128 672 128
WIRE 1152 128 1152 48
WIRE 1216 128 1152 128
WIRE 1344 128 1344 32
WIRE 1344 128 1296 128
WIRE 1472 128 1472 80
WIRE 1504 128 1504 32
WIRE -336 208 -336 144
WIRE -80 208 -80 144
WIRE 272 208 272 112
WIRE 624 208 624 192
WIRE 672 208 672 128
WIRE 800 208 800 112
WIRE 800 208 672 208
WIRE 976 208 976 144
WIRE 1376 288 1376 80
WIRE 1488 288 1488 192
WIRE 1488 288 1376 288
WIRE 1296 352 800 352
WIRE 1536 352 1296 352
WIRE 1648 368 1616 368
WIRE 1696 368 1648 368
WIRE 1824 368 1760 368
WIRE 1952 368 1904 368
WIRE 1488 384 1488 288
WIRE 1536 384 1488 384
WIRE 1184 400 1152 400
WIRE 1296 400 1296 352
WIRE 1296 400 1264 400
WIRE 1328 400 1296 400
WIRE 1424 400 1408 400
WIRE 1648 432 1648 368
WIRE 2224 432 1648 432
WIRE 160 544 160 48
WIRE 160 544 128 544
WIRE 1296 560 816 560
WIRE 1536 560 1296 560
WIRE 1648 576 1616 576
WIRE 1696 576 1648 576
WIRE 1824 576 1760 576
WIRE 1952 576 1952 368
WIRE 1952 576 1904 576
WIRE 1488 592 1488 384
WIRE 1536 592 1488 592
WIRE 992 624 816 624
WIRE 1152 656 1152 400
WIRE 1184 656 1152 656
WIRE 1296 656 1296 560
WIRE 1296 656 1264 656
WIRE 1328 656 1296 656
WIRE 1424 656 1424 400
WIRE 1424 656 1408 656
WIRE 1648 656 1648 576
WIRE 2224 656 1648 656
WIRE 2224 704 1984 704
WIRE 1488 720 1488 592
WIRE 1536 720 1488 720
WIRE 1696 736 1616 736
WIRE 1824 736 1696 736
WIRE 1952 736 1952 576
WIRE 1952 736 1904 736
WIRE 1296 752 1296 656
WIRE 1536 752 1296 752
WIRE 1104 768 816 768
WIRE 1984 800 1984 704
WIRE 1984 800 1776 800
WIRE 2000 800 1984 800
WIRE 2160 800 2080 800
WIRE 1696 880 1696 736
WIRE 1728 880 1696 880
WIRE 992 928 992 624
WIRE 1296 928 992 928
WIRE 1552 928 1296 928
WIRE 1952 944 1952 736
WIRE 1952 944 1632 944
WIRE 1488 960 1488 720
WIRE 1552 960 1488 960
WIRE 1152 976 1152 656
WIRE 1184 976 1152 976
WIRE 1296 976 1296 928
WIRE 1296 976 1264 976
WIRE 1328 976 1296 976
WIRE 1424 976 1424 656
WIRE 1424 976 1408 976
WIRE 896 992 768 992
WIRE 1024 1008 960 1008
WIRE 1104 1008 1104 768
WIRE 1104 1008 1024 1008
WIRE 1152 1008 1152 976
WIRE 1152 1008 1104 1008
WIRE 896 1024 880 1024
WIRE 1952 1040 1952 944
WIRE 1152 1056 1152 1008
WIRE 1568 1056 1568 992
WIRE 1664 1056 1568 1056
WIRE 1760 1056 1744 1056
WIRE 880 1088 880 1024
WIRE 1024 1088 1024 1008
WIRE 1024 1088 880 1088
WIRE 1760 1104 1760 1056
WIRE 976 1168 912 1168
WIRE 1120 1168 1008 1168
WIRE 1152 1168 1152 1136
WIRE 1152 1168 1120 1168
WIRE 1488 1184 1488 960
WIRE 1552 1184 1488 1184
WIRE 1120 1200 1120 1168
WIRE 1760 1200 1760 1168
WIRE 1760 1200 1632 1200
WIRE 976 1216 976 1168
WIRE 1008 1216 1008 1168
WIRE 1552 1216 1248 1216
WIRE 1248 1248 1248 1216
WIRE 1248 1248 1216 1248
WIRE 912 1280 816 1280
WIRE 1248 1296 1248 1248
WIRE 1296 1296 1248 1296
WIRE 1424 1296 1424 976
WIRE 1424 1296 1376 1296
WIRE 992 1328 992 1280
WIRE 1120 1328 1120 1280
WIRE 1120 1328 992 1328
WIRE 1216 1344 1216 1248
WIRE 1216 1344 816 1344
WIRE 912 1360 912 1280
WIRE 992 1360 992 1328
WIRE 992 1360 912 1360
WIRE 992 1392 992 1360
WIRE 1040 1392 992 1392
WIRE 1248 1392 1248 1296
WIRE 1248 1392 1120 1392
WIRE 1552 1424 1216 1424
WIRE 1680 1440 1632 1440
WIRE 1712 1440 1680 1440
WIRE 1856 1440 1776 1440
WIRE 1968 1440 1968 1392
WIRE 1968 1440 1936 1440
WIRE 1488 1456 1488 1184
WIRE 1552 1456 1488 1456
WIRE 992 1520 992 1392
WIRE 1072 1520 992 1520
WIRE 1216 1520 1216 1424
WIRE 1216 1520 1152 1520
WIRE 1296 1520 1216 1520
WIRE 1424 1520 1424 1296
WIRE 1424 1520 1376 1520
WIRE 1680 1520 1680 1440
WIRE 2224 1520 1680 1520
WIRE 2224 1584 1984 1584
WIRE 1488 1632 1488 1456
WIRE 1552 1632 1488 1632
WIRE 1728 1648 1632 1648
WIRE 1856 1648 1728 1648
WIRE 1968 1648 1968 1440
WIRE 1968 1648 1936 1648
WIRE 1216 1664 1216 1520
WIRE 1216 1664 816 1664
WIRE 1552 1664 1216 1664
WIRE 1984 1728 1984 1584
WIRE 1984 1728 1792 1728
WIRE 2016 1728 1984 1728
WIRE 2176 1728 2096 1728
WIRE 1728 1808 1728 1648
WIRE 1744 1808 1728 1808
WIRE 1216 1840 816 1840
WIRE 1392 1840 1216 1840
WIRE 1392 1872 1392 1840
WIRE 1552 1872 1392 1872
WIRE 1680 1888 1632 1888
WIRE 1712 1888 1680 1888
WIRE 1856 1888 1776 1888
WIRE 1968 1888 1968 1648
WIRE 1968 1888 1936 1888
WIRE 992 1904 992 1520
WIRE 1072 1904 992 1904
WIRE 1216 1904 1216 1840
WIRE 1216 1904 1152 1904
WIRE 1296 1904 1216 1904
WIRE 1424 1904 1424 1520
WIRE 1424 1904 1376 1904
WIRE 1488 1904 1488 1632
WIRE 1552 1904 1488 1904
WIRE 1424 1968 1424 1904
WIRE 1680 1984 1680 1888
WIRE 2224 1984 1680 1984
FLAG -80 208 0
FLAG -336 208 0
FLAG 32 16 Vcc
FLAG 0 928 0
FLAG -96 928 0
FLAG -96 848 Vcc
FLAG 0 848 Vdd
FLAG 32 80 Vdd
FLAG 352 -48 Vcc
FLAG 352 16 Vdd
FLAG 272 208 0
FLAG 432 208 0
FLAG 496 -32 Vcc
FLAG 496 32 Vdd
FLAG 1056 48 Vdd
FLAG 1056 -16 Vcc
FLAG 720 80 Vcc
FLAG 720 144 Vdd
FLAG 624 208 0
FLAG 976 208 0
FLAG 1152 208 0
FLAG 1232 0 Vcc
FLAG 1232 64 Vdd
FLAG 1568 1248 0
FLAG 1952 1040 Vcc
FLAG 1968 1392 Vcc
FLAG 1584 896 Vcc
FLAG 1584 1152 Vcc
FLAG 1584 1248 Vdd
FLAG 1424 1968 0
FLAG 912 1168 0
FLAG 1584 992 Vdd
FLAG 1520 160 Vcc
FLAG 960 1248 Vcc
FLAG 1024 1248 Vdd
FLAG 1456 160 Vdd
FLAG 1552 320 0
FLAG 1552 528 0
FLAG 1568 416 Vcc
FLAG 1568 320 Vdd
FLAG 1568 528 Vdd
FLAG 1584 1840 Vcc
FLAG 1584 1392 Vcc
FLAG 1584 1488 Vdd
FLAG 1568 1488 0
FLAG 1568 1936 0
FLAG 1568 1696 0
FLAG 1584 1696 Vdd
FLAG 1584 1600 Vcc
FLAG 1792 1824 0
FLAG -224 928 0
FLAG -224 848 V+
FLAG 2240 1728 V+
FLAG 1776 896 0
FLAG 1552 688 0
FLAG 2224 800 V+
FLAG 1568 688 Vdd
FLAG 1568 784 Vcc
FLAG -432 32 Vcc
FLAG 128 544 Accelerometer
IOPIN 128 544 Out
FLAG 160 -384 Reference_Offset
IOPIN 160 -384 Out
FLAG 448 -384 Offset_justering
IOPIN 448 -384 Out
FLAG 784 -384 Faktor9.1_forstærker
IOPIN 784 -384 Out
FLAG 1392 -384 Faktor3.6_forstærker
IOPIN 1392 -384 Out
FLAG 1168 -384 Filter
IOPIN 1168 -384 Out
FLAG 800 352 Ref_Rød_positiv
IOPIN 800 352 Out
FLAG 816 560 Ref_Gul+Vibrator_positiv
IOPIN 816 560 Out
FLAG 816 624 Ref_Grøn_positiv
IOPIN 816 624 Out
FLAG 816 1344 Ref_Grøn_negativ
IOPIN 816 1344 Out
FLAG 816 1664 Ref_Gul+Vibrator_negativ
IOPIN 816 1664 Out
FLAG 816 1840 Ref_rød_negativ
IOPIN 816 1840 Out
FLAG 2224 432 Aktivering_rød_positiv
IOPIN 2224 432 Out
FLAG 2224 656 Aktivering_gul_positiv
IOPIN 2224 656 Out
FLAG 2224 704 Aktivering_vibrator_positiv
IOPIN 2224 704 Out
FLAG 2224 1584 Aktivering_vibrator_negativ
IOPIN 2224 1584 Out
FLAG 2224 1520 Aktivering_gul_negativ
IOPIN 2224 1520 Out
FLAG 2224 1984 Aktivering_rød_negativ
IOPIN 2224 1984 Out
FLAG 816 768 Reference_komparator_positiv
IOPIN 816 768 Out
FLAG 816 1280 Reference_komparator_positiv
IOPIN 816 1280 Out
FLAG 128 -48 0
FLAG 768 1072 0
FLAG 928 976 Vcc
FLAG 928 1040 Vdd
SYMBOL Misc/signal -256 32 R270
WINDOW 0 -60 58 VTop 2
WINDOW 3 61 55 VBottom 2
WINDOW 123 0 0 Left 2
WINDOW 39 0 0 Left 2
SYMATTR InstName Accelerometer
SYMATTR Value SINE(3.8675 0.0703 20)
SYMBOL cap -96 80 R0
SYMATTR InstName C1
SYMATTR Value 200n
SYMBOL cap -352 80 R0
SYMATTR InstName C2
SYMATTR Value 100n
SYMBOL TL081 32 -16 R0
SYMATTR InstName U1
SYMBOL voltage -96 832 R0
SYMATTR InstName V2
SYMATTR Value 5.5
SYMBOL voltage 0 832 R0
SYMATTR InstName V3
SYMATTR Value -5.5
SYMBOL res 160 -112 R270
WINDOW 0 32 56 VTop 2
WINDOW 3 0 56 VBottom 2
SYMATTR InstName Ra1
SYMATTR Value 100k
SYMBOL res 304 -128 R270
WINDOW 0 32 56 VTop 2
WINDOW 3 0 56 VBottom 2
SYMATTR InstName Rb1
SYMATTR Value 100k
SYMBOL res 160 16 R270
WINDOW 0 32 56 VTop 2
WINDOW 3 0 56 VBottom 2
SYMATTR InstName Rc1
SYMATTR Value 100k
SYMBOL res 256 16 R0
WINDOW 0 36 49 Left 2
SYMATTR InstName Rd1
SYMATTR Value 100k
SYMBOL Opamps\\UniversalOpamp2 352 -16 R0
SYMATTR InstName U2
SYMBOL res 416 112 R0
WINDOW 0 66 40 Right 2
WINDOW 3 81 76 Right 2
SYMATTR InstName R4
SYMATTR Value 10K
SYMBOL res 576 96 R90
WINDOW 0 0 56 VBottom 2
WINDOW 3 32 56 VTop 2
SYMATTR InstName R5
SYMATTR Value 81k
SYMBOL Opamps\\TL081 496 -64 R0
WINDOW 3 85 96 Right 2
SYMATTR InstName U4
SYMBOL res 784 128 M180
WINDOW 0 -27 86 Left 2
WINDOW 3 34 48 Left 2
SYMATTR InstName R6
SYMATTR Value 44115.2830
SYMBOL res 928 -16 R90
WINDOW 0 0 56 VBottom 2
WINDOW 3 32 56 VTop 2
SYMATTR InstName R7
SYMATTR Value 19546.69414
SYMBOL cap 976 -80 R90
WINDOW 0 0 32 VBottom 2
WINDOW 3 32 32 VTop 2
SYMATTR InstName C3
SYMATTR Value 470n
SYMBOL cap 640 128 M0
SYMATTR InstName C4
SYMATTR Value 100n
SYMBOL res 608 112 M180
WINDOW 0 26 83 Left 2
WINDOW 3 21 107 Left 2
SYMATTR InstName R8
SYMATTR Value 63662.9772
SYMBOL cap 992 144 R180
WINDOW 0 -14 11 Left 2
WINDOW 3 24 8 Left 2
SYMATTR InstName C5
SYMATTR Value 100n
SYMBOL TL081 720 48 R0
SYMATTR InstName U5
SYMBOL TL081 1056 -48 R0
SYMATTR InstName U6
SYMBOL res 1136 112 R0
WINDOW 0 66 40 Right 2
WINDOW 3 81 76 Right 2
SYMATTR InstName R9
SYMATTR Value 10K
SYMBOL res 1312 112 R90
WINDOW 0 -4 28 VBottom 2
WINDOW 3 32 56 VTop 2
SYMATTR InstName R10
SYMATTR Value 26K
SYMBOL Opamps\\TL081 1232 -32 R0
WINDOW 3 85 96 Right 2
SYMATTR InstName U7
SYMBOL LED 1760 352 R90
WINDOW 0 0 32 VBottom 2
WINDOW 3 -35 30 VBottom 2
SYMATTR InstName D1
SYMATTR Value QTLP690C
SYMATTR Description Diode
SYMATTR Type diode
SYMBOL res 1424 384 R90
WINDOW 0 0 56 VBottom 2
WINDOW 3 32 56 VTop 2
SYMATTR InstName R11
SYMATTR Value 16821
SYMBOL res 1280 384 R90
WINDOW 0 0 56 VBottom 2
WINDOW 3 32 56 VTop 2
SYMATTR InstName R12
SYMATTR Value 10K
SYMBOL res 1920 352 R90
WINDOW 0 0 56 VBottom 2
WINDOW 3 32 56 VTop 2
SYMATTR InstName R13
SYMATTR Value 165
SYMBOL res 1424 640 R90
WINDOW 0 0 56 VBottom 2
WINDOW 3 32 56 VTop 2
SYMATTR InstName R14
SYMATTR Value 6285
SYMBOL res 1280 640 R90
WINDOW 0 0 56 VBottom 2
WINDOW 3 32 56 VTop 2
SYMATTR InstName R15
SYMATTR Value 10K
SYMBOL res 1920 560 R90
WINDOW 0 0 56 VBottom 2
WINDOW 3 32 56 VTop 2
SYMATTR InstName R16
SYMATTR Value 165
SYMBOL res 1280 960 R90
WINDOW 0 0 56 VBottom 2
WINDOW 3 32 56 VTop 2
SYMATTR InstName R17
SYMATTR Value 10K
SYMBOL res 1424 960 R90
WINDOW 0 0 56 VBottom 2
WINDOW 3 32 56 VTop 2
SYMATTR InstName R18
SYMATTR Value 1068
SYMBOL res 1136 1040 R0
SYMATTR InstName R19
SYMATTR Value 100K
SYMBOL res 1104 1184 R0
SYMATTR InstName R20
SYMATTR Value 100K
SYMBOL res 1168 1504 R90
WINDOW 0 0 56 VBottom 2
WINDOW 3 32 56 VTop 2
SYMATTR InstName R21
SYMATTR Value 10K
SYMBOL res 1392 1504 R90
WINDOW 0 0 56 VBottom 2
WINDOW 3 32 56 VTop 2
SYMATTR InstName R22
SYMATTR Value 6039
SYMBOL res 1168 1888 R90
WINDOW 0 0 56 VBottom 2
WINDOW 3 32 56 VTop 2
SYMATTR InstName R23
SYMATTR Value 10K
SYMBOL res 1392 1888 R90
WINDOW 0 0 56 VBottom 2
WINDOW 3 32 56 VTop 2
SYMATTR InstName R24
SYMATTR Value 15765
SYMBOL LED 1776 1424 R90
WINDOW 0 0 32 VBottom 2
WINDOW 3 99 33 VBottom 2
SYMATTR InstName D2
SYMATTR Value QTLP690C
SYMATTR Description Diode
SYMATTR Type diode
SYMBOL LED 1776 1872 R90
WINDOW 0 0 32 VBottom 2
WINDOW 3 101 28 VBottom 2
SYMATTR InstName D3
SYMATTR Value QTLP690C
SYMATTR Description Diode
SYMATTR Type diode
SYMBOL res 1952 1424 R90
WINDOW 0 0 56 VBottom 2
WINDOW 3 32 56 VTop 2
SYMATTR InstName R25
SYMATTR Value 165
SYMBOL res 1952 1872 R90
WINDOW 0 0 56 VBottom 2
WINDOW 3 32 56 VTop 2
SYMATTR InstName R26
SYMATTR Value 165
SYMBOL res 1760 1040 R90
WINDOW 0 0 56 VBottom 2
WINDOW 3 32 56 VTop 2
SYMATTR InstName R27
SYMATTR Value 165
SYMBOL Opamps\\TL081 928 1248 M90
WINDOW 0 32 48 VLeft 2
WINDOW 3 51 131 VLeft 2
SYMATTR InstName U8
SYMBOL Opamps\\OPA227 1552 160 R90
SYMATTR InstName U9
SYMBOL LED 1744 1104 R0
WINDOW 3 21 67 Left 2
SYMATTR Value QTLP690C
SYMATTR InstName D4
SYMATTR Description Diode
SYMATTR Type diode
SYMBOL res 1136 1376 R90
WINDOW 0 0 56 VBottom 2
WINDOW 3 32 56 VTop 2
SYMATTR InstName R28
SYMATTR Value 10K
SYMBOL res 1392 1280 R90
WINDOW 0 0 56 VBottom 2
WINDOW 3 32 56 VTop 2
SYMATTR InstName R29
SYMATTR Value 1042
SYMBOL LED 1760 560 R90
WINDOW 0 0 32 VBottom 2
WINDOW 3 -30 31 VBottom 2
SYMATTR InstName D5
SYMATTR Value QTLP690C
SYMATTR Description Diode
SYMATTR Type diode
SYMBOL res 1952 1632 R90
WINDOW 0 0 56 VBottom 2
WINDOW 3 32 56 VTop 2
SYMATTR InstName R30
SYMATTR Value 100k
SYMBOL nmos 1744 1728 R0
SYMATTR InstName M1
SYMATTR Value Si9420DY
SYMBOL voltage -224 832 R0
WINDOW 123 0 0 Left 2
WINDOW 39 0 0 Left 2
SYMATTR InstName V7
SYMATTR Value 3.4
SYMBOL res 1920 720 R90
WINDOW 0 0 56 VBottom 2
WINDOW 3 32 56 VTop 2
SYMATTR InstName R31
SYMATTR Value 100k
SYMBOL nmos 1728 800 R0
SYMATTR InstName M2
SYMATTR Value Si9420DY
SYMBOL res 2096 784 R90
WINDOW 0 0 56 VBottom 2
WINDOW 3 32 56 VTop 2
SYMATTR InstName Vibrator1
SYMATTR Value 33
SYMBOL res 2112 1712 R90
WINDOW 0 0 56 VBottom 2
WINDOW 3 32 56 VTop 2
SYMATTR InstName Vibrator2
SYMATTR Value 33
SYMBOL LM311 1568 368 M180
SYMATTR InstName U11
SYMBOL LM311 1568 576 M180
SYMATTR InstName U12
SYMBOL LM311 1568 736 M180
SYMATTR InstName U13
SYMBOL LM311 1584 944 R0
SYMATTR InstName U14
SYMBOL LM311 1584 1200 R0
SYMATTR InstName U15
SYMBOL LM311 1584 1440 R0
SYMATTR InstName U16
SYMBOL LM311 1584 1648 R0
SYMATTR InstName U17
SYMBOL LM311 1584 1888 R0
SYMATTR InstName U18
SYMBOL schottky 2224 784 R90
WINDOW 0 0 32 VBottom 2
WINDOW 3 32 32 VTop 2
SYMATTR InstName D6
SYMATTR Value BAT46WJ
SYMATTR Description Diode
SYMATTR Type diode
SYMBOL schottky 2240 1712 R90
WINDOW 0 0 32 VBottom 2
WINDOW 3 32 32 VTop 2
SYMATTR InstName D7
SYMATTR Value BAT46WJ
SYMATTR Description Diode
SYMATTR Type diode
SYMBOL voltage 128 -144 M0
WINDOW 123 0 0 Left 2
WINDOW 39 0 0 Left 2
SYMATTR InstName spaendingsref1
SYMATTR Value 1.6330
SYMBOL voltage 768 976 M0
WINDOW 123 0 0 Left 2
WINDOW 39 0 0 Left 2
SYMATTR InstName spaendingsref2
SYMATTR Value 2.5005
SYMBOL TL081 928 944 R0
SYMATTR InstName U3
TEXT -128 1096 Left 2 !.tran 0.01
